CM a lambda/30 testing feed
CE
GW	1	21	0	-0.0749481145	0	0	0.0749481145	0	.001
GE	0
GN	-1
EK
EX	0	1	11	0	1	0	0
FR	0	0	0	0	1500	0
RP	0	19	3	1500	0	0	10	45		
EN
