CM dipole over 1/2 wave splasher feed
CM dimensions from RSGB Microwave Vol3 p14.25
CM leave out freq, do it in wavelengths
CM pointed in pos Z direction
CM in free space
CE
GW 1 10 0.25 0 -0.3 .1768 .1768 -0.3 .001
GW 2 10  .1768 .1768 -0.3 0 0.25 -0.3 .001
GW 3 10 0.1875 0 -0.3 .1326 .1326 -0.3 .001
GW 4 10  .1326 .1326 -0.3 0 0.1875 -0.3 .001
GW 5 10 0.125 0 -0.3 .0884 .0884 -0.3 .001
GW 6 10  .0884 .0884 -0.3 0 0.125 -0.3 .001
GW 7 10 0.0625 0 -0.3 .0442 .0442 -0.3 .001
GW 8 10  .0442 .0442 -0.3 0 0.0625 -0.3 .001
GW 9 10 0 0 -0.3 0.0442 0.0442 -0.3 .001
GW 10 10 0.0442 0.0442 -0.3 .0884 .0884 -0.3 .001
GW 11 10 .0884 .0884 -0.3 .1326 .1326 -0.3 .001
GW 12 10 .1326 .1326 -0.3 .1768 .1768 -0.3 .001
GX 12 110
GW 51 9 0 -.225 0 0 .225 0  .027
GS 0 0 1
GE 0
EK
EX 0 51 5 0 1 0
RP 0 19 3 1500 0 0 10 45
EN