CM a lambda/30 testing feed
CE
GW	1	1	0	-0.01	0	0	0.01	0	.0001
GE	0
GN	-1
EK
EX	0	1	1	0	1	0	0
FR	0	0	0	0	1500	0
RP	0	19	3	1500	0	0	10	45		
EN
